j1_feederfiles/feeder_j1_opendss_model (2)/OpenDSS model/Master_noPV.dss

Clear

Redirect Substation.dss
Redirect LineCodes.dss
Redirect Lines.dss
Redirect Transformers.dss
Redirect LoadsInd.dss
Redirect Services.dss
Redirect Capacitors.dss
Redirect Regulators_mod.dss

set maxiter=100
set maxcontroliter=100
new energymeter.m_OH_5964927408 line.OH_5964927408
Set voltagebases=[12.47, 7.2,0.48, 0.416]
Calcv
Solve

redirect monitors.dss

Buscoords Buscoords.dss

show eventlog
!manohar
Plot Profile
plot daisy Power max=2000 n n C1=$00FF0000