j1_feederfiles/feeder_j1_opendss_model (2)/OpenDSS model/LoadsInd.dss
New Load.B13552-1-A_Cust4 phases=1 bus=X_B13552_Cust4-A.1 kV=0.24 kW=2.68970725 kvar=1.954587875 status=fixed Vminpu=0.8 Vmaxpu=1.2
New Load.B13552-1-A_Cust3 phases=1 bus=X_B13552_Cust3-A.1 kV=0.24 kW=2.68970725 kvar=1.954587875 status=fixed Vminpu=0.8 Vmaxpu=1.2
New Load.B13552-1-A_Cust2 phases=1 bus=X_B13552_Cust2-A.1 kV=0.24 kW=2.68970725 kvar=1.954587875 status=fixed Vminpu=0.8 Vmaxpu=1.2
New Load.B13552-1-A_Cust1 phases=1 bus=X_B13552_Cust1-A.1 kV=0.24 kW=2.68970725 kvar=1.954587875 status=fixed Vminpu=0.8 Vmaxpu=1.2
New Load.B34986-1-C_Cust1 phases=1 bus=X_B34986_Cust1-C.3 kV=0.24 kW=5.1609036 kvar=3.2573962 status=fixed Vminpu=0.8 Vmaxpu=1.2
New Load.B45835-1-B_Cust2 phases=1 bus=X_B45835_Cust2-B.2 kV=0.24 kW=3.52214295 kvar=2.3440292 status=fixed Vminpu=0.8 Vmaxpu=1.2
New Load.B45835-1-B_Cust1 phases=1 bus=X_B45835_Cust1-B.2 kV=0.24 kW=3.52214295 kvar=2.3440292 status=fixed Vminpu=0.8 Vmaxpu=1.2
New Load.B50640-1-A_Cust1 phases=1 bus=X_B50640_Cust1-A.1 kV=0.24 kW=4.0345608 kvar=2.9318818 status=fixed Vminpu=0.8 Vmaxpu=1.2
New Load.B4805-1-C_Cust6 phases=1 bus=X_B4805_Cust6-C.3 kV=0.24 kW=1.72030116666667 kvar=1.08579873333333 status=fixed Vminpu=0.8 Vmaxpu=1.2
New Load.B4805-1-C_Cust5 phases=1 bus=X_B4805_Cust5-C.3 kV=0.24 kW=1.72030116666667 kvar=1.08579873333333 status=fixed Vminpu=0.8 Vmaxpu=1.2
New Load.B4805-1-C_Cust4 phases=1 bus=X_B4805_Cust4-C.3 kV=0.24 kW=1.72030116666667 kvar=1.08579873333333 status=fixed Vminpu=0.8 Vmaxpu=1.2
New Load.B4805-1-C_Cust3 phases=1 bus=X_B4805_Cust3-C.3 kV=0.24 kW=1.72030116666667 kvar=1.08579873333333 status=fixed Vminpu=0.8 Vmaxpu=1.2
New Load.B4805-1-C_Cust2 phases=1 bus=X_B4805_Cust2-C.3 kV=0.24 kW=1.72030116666667 kvar=1.08579873333333 status=fixed Vminpu=0.8 Vmaxpu=1.2
New Load.B4805-1-C_Cust1 phases=1 bus=X_B4805_Cust1-C.3 kV=0.24 kW=1.72030116666667 kvar=1.08579873333333 status=fixed Vminpu=0.8 Vmaxpu=1.2
New Load.B4710-1-A_Cust1 phases=1 bus=X_B4710_Cust1-A.1 kV=0.24 kW=4.0345608 kvar=2.9318818 status=fixed Vminpu=0.8 Vmaxpu=1.2
New Load.B4859-1-A_Cust3 phases=1 bus=X_B4859_Cust3-A.1 kV=0.24 kW=2.24142266666667 kvar=1.62882323333333 status=fixed Vminpu=0.8 Vmaxpu=1.2
New Load.B4859-1-A_Cust2 phases=1 bus=X_B4859_Cust2-A.1 kV=0.24 kW=2.24142266666667 kvar=1.62882323333333 status=fixed Vminpu=0.8 Vmaxpu=1.2
New Load.B4859-1-A_Cust1 phases=1 bus=X_B4859_Cust1-A.1 kV=0.24 kW=2.24142266666667 kvar=1.62882323333333 status=fixed Vminpu=0.8 Vmaxpu=1.2
New Load.B4859-1-B_Cust3 phases=1 bus=X_B4859_Cust3-B.2 kV=0.24 kW=2.3480953 kvar=1.56268613333333 status=fixed Vminpu=0.8 Vmaxpu=1.2
New Load.B4859-1-B_Cust2 phases=1 bus=X_B4859_Cust2-B.2 kV=0.24 kW=2.3480953 kvar=1.56268613333333 status=fixed Vminpu=0.8 Vmaxpu=1.2
New Load.B4859-1-B_Cust1 phases=1 bus=X_B4859_Cust1-B.2 kV=0.24 kW=2.3480953 kvar=1.56268613333333 status=fixed Vminpu=0.8 Vmaxpu=1.2
New Load.B4859-1-C_Cust3 phases=1 bus=X_B4859_Cust3-C.3 kV=0.24 kW=1.7203012 kvar=1.08579873333333 status=fixed Vminpu=0.8 Vmaxpu=1.2
New Load.B4859-1-C_Cust2 phases=1 bus=X_B4859_Cust2-C.3 kV=0.24 kW=1.7203012 kvar=1.08579873333333 status=fixed Vminpu=0.8 Vmaxpu=1.2
New Load.B4859-1-C_Cust1 phases=1 bus=X_B4859_Cust1-C.3 kV=0.24 kW=1.7203012 kvar=1.08579873333333 status=fixed Vminpu=0.8 Vmaxpu=1.2
New Load.B41240-1-A_Cust1 phases=1 bus=X_B41240_Cust1-A.1 kV=0.24 kW=4.0345608 kvar=2.9318818 status=fixed Vminpu=0.8 Vmaxpu=1.2
New Load.B55546-1-C_Cust1 phases=1 bus=X_B55546_Cust1-C.3 kV=0.24 kW=3.0965421 kvar=1.9544377 status=fixed Vminpu=0.8 Vmaxpu=1.2
New Load.B18979-1-C_Cust2 phases=1 bus=X_B18979_Cust2-C.3 kV=0.24 kW=1.54827105 kvar=0.97721885 status=fixed Vminpu=0.8 Vmaxpu=1.2
New Load.B18979-1-C_Cust1 phases=1 bus=X_B18979_Cust1-C.3 kV=0.24 kW=1.54827105 kvar=0.97721885 status=fixed Vminpu=0.8 Vmaxpu=1.2
New Load.B4982-1-B_Cust2 phases=1 bus=X_B4982_Cust2-B.2 kV=0.24 kW=2.11328575 kvar=1.4064175 status=fixed Vminpu=0.8 Vmaxpu=1.2
New Load.B4982-1-B_Cust1 phases=1 bus=X_B4982_Cust1-B.2 kV=0.24 kW=2.11328575 kvar=1.4064175 status=fixed Vminpu=0.8 Vmaxpu=1.2
New Load.B18902-1-A_Cust2 phases=1 bus=X_B18902_Cust2-A.1 kV=0.24 kW=2.0172804 kvar=1.4659409 status=fixed Vminpu=0.8 Vmaxpu=1.2
New Load.B18902-1-A_Cust1 phases=1 bus=X_B18902_Cust1-A.1 kV=0.24 kW=2.0172804 kvar=1.4659409 status=fixed Vminpu=0.8 Vmaxpu=1.2
New Load.B2532-1-A_Cust1 phases=1 bus=X_B2532_Cust1-A.1 kV=0.24 kW=4.0345608 kvar=2.9318818 status=fixed Vminpu=0.8 Vmaxpu=1.2
New Load.B47668-1-A_Cust1 phases=1 bus=X_B47668_Cust1-A.1 kV=0.24 kW=4.0345608 kvar=2.9318818 status=fixed Vminpu=0.8 Vmaxpu=1.2
New Load.B47668-1-B_Cust1 phases=1 bus=X_B47668_Cust1-B.2 kV=0.24 kW=4.2265715 kvar=2.812835 status=fixed Vminpu=0.8 Vmaxpu=1.2
New Load.B47668-1-C_Cust1 phases=1 bus=X_B47668_Cust1-C.3 kV=0.24 kW=3.0965421 kvar=1.9544377 status=fixed Vminpu=0.8 Vmaxpu=1.2
New Load.B4891-1-C_Cust3 phases=1 bus=X_B4891_Cust3-C.3 kV=0.24 kW=1.7203012 kvar=1.08579873333333 status=fixed Vminpu=0.8 Vmaxpu=1.2
New Load.B4891-1-C_Cust2 phases=1 bus=X_B4891_Cust2-C.3 kV=0.24 kW=1.7203012 kvar=1.08579873333333 status=fixed Vminpu=0.8 Vmaxpu=1.2
New Load.B4891-1-C_Cust1 phases=1 bus=X_B4891_Cust1-C.3 kV=0.24 kW=1.7203012 kvar=1.08579873333333 status=fixed Vminpu=0.8 Vmaxpu=1.2
New Load.B18858-1-B_Cust1 phases=1 bus=X_B18858_Cust1-B.2 kV=0.24 kW=4.2265715 kvar=2.812835 status=fixed Vminpu=0.8 Vmaxpu=1.2
New Load.5851228580-1-C_Cust1 phases=1 bus=X_5851228580_Cust1-C.3 kV=0.24 kW=5.1609036 kvar=3.2573962 status=fixed Vminpu=0.8 Vmaxpu=1.2
New Load.B18971-1-C_Cust3 phases=1 bus=X_B18971_Cust3-C.3 kV=0.24 kW=1.7203012 kvar=1.08579873333333 status=fixed Vminpu=0.8 Vmaxpu=1.2
New Load.B18971-1-C_Cust2 phases=1 bus=X_B18971_Cust2-C.3 kV=0.24 kW=1.7203012 kvar=1.08579873333333 status=fixed Vminpu=0.8 Vmaxpu=1.2
New Load.B18971-1-C_Cust1 phases=1 bus=X_B18971_Cust1-C.3 kV=0.24 kW=1.7203012 kvar=1.08579873333333 status=fixed Vminpu=0.8 Vmaxpu=1.2
New Load.B8019-1-C_Cust6 phases=1 bus=X_B8019_Cust6-C.3 kV=0.24 kW=0.8601506 kvar=0.542899366666667 status=fixed Vminpu=0.8 Vmaxpu=1.2
New Load.B8019-1-C_Cust5 phases=1 bus=X_B8019_Cust5-C.3 kV=0.24 kW=0.8601506 kvar=0.542899366666667 status=fixed Vminpu=0.8 Vmaxpu=1.2
New Load.B8019-1-C_Cust4 phases=1 bus=X_B8019_Cust4-C.3 kV=0.24 kW=0.8601506 kvar=0.542899366666667 status=fixed Vminpu=0.8 Vmaxpu=1.2
New Load.B8019-1-C_Cust3 phases=1 bus=X_B8019_Cust3-C.3 kV=0.24 kW=0.8601506 kvar=0.542899366666667 status=fixed Vminpu=0.8 Vmaxpu=1.2
New Load.B8019-1-C_Cust2 phases=1 bus=X_B8019_Cust2-C.3 kV=0.24 kW=0.8601506 kvar=0.542899366666667 status=fixed Vminpu=0.8 Vmaxpu=1.2
New Load.B8019-1-C_Cust1 phases=1 bus=X_B8019_Cust1-C.3 kV=0.24 kW=0.8601506 kvar=0.542899366666667 status=fixed Vminpu=0.8 Vmaxpu=1.2
New Load.B60843-1-C_Cust1 phases=1 bus=X_B60843_Cust1-C.3 kV=0.24 kW=3.0965421 kvar=1.9544377 status=fixed Vminpu=0.8 Vmaxpu=1.2
New Load.B44432-1-C_Cust1 phases=1 bus=X_B44432_Cust1-C.3 kV=0.24 kW=2.0643614 kvar=1.3029585 status=fixed Vminpu=0.8 Vmaxpu=1.2
New Load.B52584-1-B_Cust1 phases=1 bus=X_B52584_Cust1-B.2 kV=0.24 kW=7.0442859 kvar=4.6880584 status=fixed Vminpu=0.8 Vmaxpu=1.2
New Load.B41463-1-C_Cust1 phases=1 bus=X_B41463_Cust1-C.3 kV=0.24 kW=5.1609036 kvar=3.2573962 status=fixed Vminpu=0.8 Vmaxpu=1.2
New Load.5905728658-1-B_Cust1 phases=1 bus=X_5905728658_Cust1-B.2 kV=0.24 kW=4.2265715 kvar=2.812835 status=fixed Vminpu=0.8 Vmaxpu=1.2
New Load.B15821-1-C_Cust1 phases=1 bus=X_B15821_Cust1-C.3 kV=0.24 kW=3.0965421 kvar=1.9544377 status=fixed Vminpu=0.8 Vmaxpu=1.2
New Load.B18850-1-B_Cust2 phases=1 bus=X_B18850_Cust2-B.2 kV=0.24 kW=2.11328575 kvar=1.4064175 status=fixed Vminpu=0.8 Vmaxpu=1.2
New Load.B18850-1-B_Cust1 phases=1 bus=X_B18850_Cust1-B.2 kV=0.24 kW=2.11328575 kvar=1.4064175 status=fixed Vminpu=0.8 Vmaxpu=1.2
New Load.B18866-1-A_Cust4 phases=1 bus=X_B18866_Cust4-A.1 kV=0.24 kW=1.0086402 kvar=0.73297045 status=fixed Vminpu=0.8 Vmaxpu=1.2
New Load.B18866-1-A_Cust3 phases=1 bus=X_B18866_Cust3-A.1 kV=0.24 kW=1.0086402 kvar=0.73297045 status=fixed Vminpu=0.8 Vmaxpu=1.2
New Load.B18866-1-A_Cust2 phases=1 bus=X_B18866_Cust2-A.1 kV=0.24 kW=1.0086402 kvar=0.73297045 status=fixed Vminpu=0.8 Vmaxpu=1.2
New Load.B18866-1-A_Cust1 phases=1 bus=X_B18866_Cust1-A.1 kV=0.24 kW=1.0086402 kvar=0.73297045 status=fixed Vminpu=0.8 Vmaxpu=1.2
New Load.6060229368-1-B_Cust1 phases=1 bus=X_6060229368_Cust1-B.2 kV=0.24 kW=7.0442859 kvar=4.6880584 status=fixed Vminpu=0.8 Vmaxpu=1.2
New Load.B52162-1-A_Cust1 phases=1 bus=X_B52162_Cust1-A.1 kV=0.24 kW=4.0345608 kvar=2.9318818 status=fixed Vminpu=0.8 Vmaxpu=1.2
New Load.G43337-1-A_Cust1 phases=1 bus=X_G43337_Cust1-A.1 kV=0.24 kW=4.0345608 kvar=2.9318818 status=fixed Vminpu=0.8 Vmaxpu=1.2
New Load.B18977-1-C_Cust3 phases=1 bus=X_B18977_Cust3-C.3 kV=0.24 kW=1.0321807 kvar=0.651479233333333 status=fixed Vminpu=0.8 Vmaxpu=1.2
New Load.B18977-1-C_Cust2 phases=1 bus=X_B18977_Cust2-C.3 kV=0.24 kW=1.0321807 kvar=0.651479233333333 status=fixed Vminpu=0.8 Vmaxpu=1.2
New Load.B18977-1-C_Cust1 phases=1 bus=X_B18977_Cust1-C.3 kV=0.24 kW=1.0321807 kvar=0.651479233333333 status=fixed Vminpu=0.8 Vmaxpu=1.2
New Load.B18839-1-B_Cust1 phases=1 bus=X_B18839_Cust1-B.2 kV=0.24 kW=4.2265715 kvar=2.812835 status=fixed Vminpu=0.8 Vmaxpu=1.2
New Load.B46251-1-C_Cust1 phases=1 bus=X_B46251_Cust1-C.3 kV=0.24 kW=2.0643614 kvar=1.3029585 status=fixed Vminpu=0.8 Vmaxpu=1.2
New Load.B18925-1-B_Cust1 phases=1 bus=X_B18925_Cust1-B.2 kV=0.24 kW=2.8177143 kvar=1.8752234 status=fixed Vminpu=0.8 Vmaxpu=1.2
New Load.B22569-1-A_Cust1 phases=1 bus=X_B22569_Cust1-A.1 kV=0.24 kW=4.0345608 kvar=2.9318818 status=fixed Vminpu=0.8 Vmaxpu=1.2
New Load.B23880-1-C_Cust1 phases=1 bus=X_B23880_Cust1-C.3 kV=0.24 kW=5.1609036 kvar=3.2573962 status=fixed Vminpu=0.8 Vmaxpu=1.2
New Load.B3066-1-C_Cust1 phases=1 bus=X_B3066_Cust1-C.3 kV=0.24 kW=5.1609036 kvar=3.2573962 status=fixed Vminpu=0.8 Vmaxpu=1.2
New Load.B63365-1-B_Cust1 phases=1 bus=X_B63365_Cust1-B.2 kV=0.24 kW=7.0442859 kvar=4.6880584 status=fixed Vminpu=0.8 Vmaxpu=1.2
New Load.B26203-1-C_Cust1 phases=1 bus=X_B26203_Cust1-C.3 kV=0.24 kW=3.0965421 kvar=1.9544377 status=fixed Vminpu=0.8 Vmaxpu=1.2
New Load.B23869-1-C_Cust1 phases=1 bus=X_B23869_Cust1-C.3 kV=0.24 kW=3.0965421 kvar=1.9544377 status=fixed Vminpu=0.8 Vmaxpu=1.2
New Load.B56446-1-A_Cust1 phases=1 bus=X_B56446_Cust1-A.1 kV=0.24 kW=4.0345608 kvar=2.9318818 status=fixed Vminpu=0.8 Vmaxpu=1.2
New Load.B18986-1-C_Cust1 phases=1 bus=X_B18986_Cust1-C.3 kV=0.24 kW=5.1609036 kvar=3.2573962 status=fixed Vminpu=0.8 Vmaxpu=1.2
New Load.B13651-1-A_Cust16 phases=1 bus=X_B13651_Cust16-A.1 kV=0.24 kW=0.630400125 kvar=0.45810653125 status=fixed Vminpu=0.8 Vmaxpu=1.2
New Load.B13651-1-A_Cust15 phases=1 bus=X_B13651_Cust15-A.1 kV=0.24 kW=0.630400125 kvar=0.45810653125 status=fixed Vminpu=0.8 Vmaxpu=1.2
New Load.B13651-1-A_Cust14 phases=1 bus=X_B13651_Cust14-A.1 kV=0.24 kW=0.630400125 kvar=0.45810653125 status=fixed Vminpu=0.8 Vmaxpu=1.2
New Load.B13651-1-A_Cust13 phases=1 bus=X_B13651_Cust13-A.1 kV=0.24 kW=0.630400125 kvar=0.45810653125 status=fixed Vminpu=0.8 Vmaxpu=1.2
New Load.B13651-1-A_Cust12 phases=1 bus=X_B13651_Cust12-A.1 kV=0.24 kW=0.630400125 kvar=0.45810653125 status=fixed Vminpu=0.8 Vmaxpu=1.2
New Load.B13651-1-A_Cust11 phases=1 bus=X_B13651_Cust11-A.1 kV=0.24 kW=0.630400125 kvar=0.45810653125 status=fixed Vminpu=0.8 Vmaxpu=1.2
New Load.B13651-1-A_Cust10 phases=1 bus=X_B13651_Cust10-A.1 kV=0.24 kW=0.630400125 kvar=0.45810653125 status=fixed Vminpu=0.8 Vmaxpu=1.2
New Load.B13651-1-A_Cust9 phases=1 bus=X_B13651_Cust9-A.1 kV=0.24 kW=0.630400125 kvar=0.45810653125 status=fixed Vminpu=0.8 Vmaxpu=1.2
New Load.B13651-1-A_Cust8 phases=1 bus=X_B13651_Cust8-A.1 kV=0.24 kW=0.630400125 kvar=0.45810653125 status=fixed Vminpu=0.8 Vmaxpu=1.2
New Load.B13651-1-A_Cust7 phases=1 bus=X_B13651_Cust7-A.1 kV=0.24 kW=0.630400125 kvar=0.45810653125 status=fixed Vminpu=0.8 Vmaxpu=1.2
New Load.B13651-1-A_Cust6 phases=1 bus=X_B13651_Cust6-A.1 kV=0.24 kW=0.630400125 kvar=0.45810653125 status=fixed Vminpu=0.8 Vmaxpu=1.2
New Load.B13651-1-A_Cust5 phases=1 bus=X_B13651_Cust5-A.1 kV=0.24 kW=0.630400125 kvar=0.45810653125 status=fixed Vminpu=0.8 Vmaxpu=1.2
New Load.B13651-1-A_Cust4 phases=1 bus=X_B13651_Cust4-A.1 kV=0.24 kW=0.630400125 kvar=0.45810653125 status=fixed Vminpu=0.8 Vmaxpu=1.2
New Load.B13651-1-A_Cust3 phases=1 bus=X_B13651_Cust3-A.1 kV=0.24 kW=0.630400125 kvar=0.45810653125 status=fixed Vminpu=0.8 Vmaxpu=1.2
New Load.B13651-1-A_Cust2 phases=1 bus=X_B13651_Cust2-A.1 kV=0.24 kW=0.630400125 kvar=0.45810653125 status=fixed Vminpu=0.8 Vmaxpu=1.2
New Load.B13651-1-A_Cust1 phases=1 bus=X_B13651_Cust1-A.1 kV=0.24 kW=0.630400125 kvar=0.45810653125 status=fixed Vminpu=0.8 Vmaxpu=1.2
New Load.6034628876-1-C_Cust1 phases=1 bus=X_6034628876_Cust1-C.3 kV=0.24 kW=5.1609036 kvar=3.2573962 status=fixed Vminpu=0.8 Vmaxpu=1.2
New Load.B17575-1-C_Cust1 phases=1 bus=X_B17575_Cust1-C.3 kV=0.24 kW=5.1609036 kvar=3.2573962 status=fixed Vminpu=0.8 Vmaxpu=1.2
New Load.B10925-1-C_Cust3 phases=1 bus=X_B10925_Cust3-C.3 kV=0.24 kW=1.0321807 kvar=0.651479233333333 status=fixed Vminpu=0.8 Vmaxpu=1.2
New Load.B10925-1-C_Cust2 phases=1 bus=X_B10925_Cust2-C.3 kV=0.24 kW=1.0321807 kvar=0.651479233333333 status=fixed Vminpu=0.8 Vmaxpu=1.2
New Load.B10925-1-C_Cust1 phases=1 bus=X_B10925_Cust1-C.3 kV=0.24 kW=1.0321807 kvar=0.651479233333333 status=fixed Vminpu=0.8 Vmaxpu=1.2
New Load.B23406-1-A_Cust1 phases=1 bus=X_B23406_Cust1-A.1 kV=0.24 kW=6.724268 kvar=4.8864697 status=fixed Vminpu=0.8 Vmaxpu=1.2
New Load.B4594-1-C_Cust3 phases=1 bus=X_B4594_Cust3-C.3 kV=0.24 kW=2.58045176666667 kvar=1.6286981 status=fixed Vminpu=0.8 Vmaxpu=1.2
New Load.B4594-1-C_Cust2 phases=1 bus=X_B4594_Cust2-C.3 kV=0.24 kW=2.58045176666667 kvar=1.6286981 status=fixed Vminpu=0.8 Vmaxpu=1.2
New Load.B4594-1-C_Cust1 phases=1 bus=X_B4594_Cust1-C.3 kV=0.24 kW=2.58045176666667 kvar=1.6286981 status=fixed Vminpu=0.8 Vmaxpu=1.2
New Load.6018228840-1-C_Cust1 phases=1 bus=X_6018228840_Cust1-C.3 kV=0.24 kW=10.321807 kvar=6.5147924 status=fixed Vminpu=0.8 Vmaxpu=1.2
New Load.B5185-1-C_Cust1 phases=1 bus=X_B5185_Cust1-C.3 kV=0.24 kW=5.1609036 kvar=3.2573962 status=fixed Vminpu=0.8 Vmaxpu=1.2
New Load.B48180-1-C_Cust1 phases=1 bus=X_B48180_Cust1-C.3 kV=0.24 kW=3.0965421 kvar=1.9544377 status=fixed Vminpu=0.8 Vmaxpu=1.2
New Load.G35573-1-A_Cust1 phases=1 bus=X_G35573_Cust1-A.1 kV=0.24 kW=10.086402 kvar=7.3297045 status=fixed Vminpu=0.8 Vmaxpu=1.2
New Load.G35573-1-B_Cust1 phases=1 bus=X_G35573_Cust1-B.2 kV=0.24 kW=10.566429 kvar=7.0320876 status=fixed Vminpu=0.8 Vmaxpu=1.2
New Load.G35573-1-C_Cust1 phases=1 bus=X_G35573_Cust1-C.3 kV=0.24 kW=7.7413553 kvar=4.8860943 status=fixed Vminpu=0.8 Vmaxpu=1.2
New Load.B59582-1-C_Cust1 phases=1 bus=X_B59582_Cust1-C.3 kV=0.24 kW=3.0965421 kvar=1.9544377 status=fixed Vminpu=0.8 Vmaxpu=1.2
New Load.G33468-1-B_Cust1 phases=1 bus=X_G33468_Cust1-B.2 kV=0.24 kW=4.2265715 kvar=2.812835 status=fixed Vminpu=0.8 Vmaxpu=1.2
New Load.B4861-1-B_Cust7 phases=1 bus=X_B4861_Cust7-B.2 kV=0.24 kW=1.50948985714286 kvar=1.00458394285714 status=fixed Vminpu=0.8 Vmaxpu=1.2
New Load.B4861-1-B_Cust6 phases=1 bus=X_B4861_Cust6-B.2 kV=0.24 kW=1.50948985714286 kvar=1.00458394285714 status=fixed Vminpu=0.8 Vmaxpu=1.2
New Load.B4861-1-B_Cust5 phases=1 bus=X_B4861_Cust5-B.2 kV=0.24 kW=1.50948985714286 kvar=1.00458394285714 status=fixed Vminpu=0.8 Vmaxpu=1.2
New Load.B4861-1-B_Cust4 phases=1 bus=X_B4861_Cust4-B.2 kV=0.24 kW=1.50948985714286 kvar=1.00458394285714 status=fixed Vminpu=0.8 Vmaxpu=1.2
New Load.B4861-1-B_Cust3 phases=1 bus=X_B4861_Cust3-B.2 kV=0.24 kW=1.50948985714286 kvar=1.00458394285714 status=fixed Vminpu=0.8 Vmaxpu=1.2
New Load.B4861-1-B_Cust2 phases=1 bus=X_B4861_Cust2-B.2 kV=0.24 kW=1.50948985714286 kvar=1.00458394285714 status=fixed Vminpu=0.8 Vmaxpu=1.2
New Load.B4861-1-B_Cust1 phases=1 bus=X_B4861_Cust1-B.2 kV=0.24 kW=1.50948985714286 kvar=1.00458394285714 status=fixed Vminpu=0.8 Vmaxpu=1.2
New Load.6000828811-1-A_Cust1 phases=1 bus=X_6000828811_Cust1-A.1 kV=0.24 kW=10.758829 kvar=7.8183515 status=fixed Vminpu=0.8 Vmaxpu=1.2
New Load.B18995-1-C_Cust1 phases=1 bus=X_B18995_Cust1-C.3 kV=0.24 kW=3.0965421 kvar=1.9544377 status=fixed Vminpu=0.8 Vmaxpu=1.2
New Load.G42394-1-C_Cust1 phases=1 bus=X_G42394_Cust1-C.3 kV=0.24 kW=3.0965421 kvar=1.9544377 status=fixed Vminpu=0.8 Vmaxpu=1.2
New Load.B36183-1-C_Cust1 phases=1 bus=X_B36183_Cust1-C.3 kV=0.24 kW=3.0965421 kvar=1.9544377 status=fixed Vminpu=0.8 Vmaxpu=1.2
New Load.B62294-1-C_Cust2 phases=1 bus=X_B62294_Cust2-C.3 kV=0.24 kW=2.5804518 kvar=1.6286981 status=fixed Vminpu=0.8 Vmaxpu=1.2
New Load.B62294-1-C_Cust1 phases=1 bus=X_B62294_Cust1-C.3 kV=0.24 kW=2.5804518 kvar=1.6286981 status=fixed Vminpu=0.8 Vmaxpu=1.2
New Load.G35320-1-B_Cust1 phases=1 bus=X_G35320_Cust1-B.2 kV=0.24 kW=4.2265715 kvar=2.812835 status=fixed Vminpu=0.8 Vmaxpu=1.2
New Load.G40623-1-A_Cust2 phases=1 bus=X_G40623_Cust2-A.1 kV=0.24 kW=3.362134 kvar=2.44323485 status=fixed Vminpu=0.8 Vmaxpu=1.2
New Load.G40623-1-A_Cust1 phases=1 bus=X_G40623_Cust1-A.1 kV=0.24 kW=3.362134 kvar=2.44323485 status=fixed Vminpu=0.8 Vmaxpu=1.2
New Load.B34541-1-A_Cust1 phases=1 bus=X_B34541_Cust1-A.1 kV=0.24 kW=4.0345608 kvar=2.9318818 status=fixed Vminpu=0.8 Vmaxpu=1.2
New Load.B19071-1-C_Cust1 phases=1 bus=X_B19071_Cust1-C.3 kV=0.24 kW=3.0965421 kvar=1.9544377 status=fixed Vminpu=0.8 Vmaxpu=1.2
New Load.B39820-1-C_Cust1 phases=1 bus=X_B39820_Cust1-C.3 kV=0.24 kW=5.1609036 kvar=3.2573962 status=fixed Vminpu=0.8 Vmaxpu=1.2
New Load.5857829226-1-C_Cust1 phases=1 bus=X_5857829226_Cust1-C.3 kV=0.24 kW=5.1609036 kvar=3.2573962 status=fixed Vminpu=0.8 Vmaxpu=1.2
New Load.5920428274-1-C_Cust1 phases=1 bus=X_5920428274_Cust1-C.3 kV=0.24 kW=5.1609036 kvar=3.2573962 status=fixed Vminpu=0.8 Vmaxpu=1.2
New Load.B24281-1-C_Cust2 phases=1 bus=X_B24281_Cust2-C.3 kV=0.24 kW=1.54827105 kvar=0.97721885 status=fixed Vminpu=0.8 Vmaxpu=1.2
New Load.B24281-1-C_Cust1 phases=1 bus=X_B24281_Cust1-C.3 kV=0.24 kW=1.54827105 kvar=0.97721885 status=fixed Vminpu=0.8 Vmaxpu=1.2
New Load.B18912-1-B_Cust1 phases=1 bus=X_B18912_Cust1-B.2 kV=0.24 kW=7.0442859 kvar=4.6880584 status=fixed Vminpu=0.8 Vmaxpu=1.2
New Load.B60940-1-C_Cust3 phases=1 bus=X_B60940_Cust3-C.3 kV=0.24 kW=1.7203012 kvar=1.08579873333333 status=fixed Vminpu=0.8 Vmaxpu=1.2
New Load.B60940-1-C_Cust2 phases=1 bus=X_B60940_Cust2-C.3 kV=0.24 kW=1.7203012 kvar=1.08579873333333 status=fixed Vminpu=0.8 Vmaxpu=1.2
New Load.B60940-1-C_Cust1 phases=1 bus=X_B60940_Cust1-C.3 kV=0.24 kW=1.7203012 kvar=1.08579873333333 status=fixed Vminpu=0.8 Vmaxpu=1.2
New Load.B4579-1-A_Cust2 phases=1 bus=X_B4579_Cust2-A.1 kV=0.24 kW=2.6897072 kvar=1.95458785 status=fixed Vminpu=0.8 Vmaxpu=1.2
New Load.B4579-1-A_Cust1 phases=1 bus=X_B4579_Cust1-A.1 kV=0.24 kW=2.6897072 kvar=1.95458785 status=fixed Vminpu=0.8 Vmaxpu=1.2
New Load.B4579-1-C_Cust2 phases=1 bus=X_B4579_Cust2-C.3 kV=0.24 kW=2.0643614 kvar=1.3029585 status=fixed Vminpu=0.8 Vmaxpu=1.2
New Load.B4579-1-C_Cust1 phases=1 bus=X_B4579_Cust1-C.3 kV=0.24 kW=2.0643614 kvar=1.3029585 status=fixed Vminpu=0.8 Vmaxpu=1.2
New Load.B4994-1-A_Cust1 phases=1 bus=X_B4994_Cust1-A.1 kV=0.24 kW=4.0345608 kvar=2.9318818 status=fixed Vminpu=0.8 Vmaxpu=1.2
New Load.B61632-1-A_Cust1 phases=1 bus=X_B61632_Cust1-A.1 kV=0.24 kW=26.897072 kvar=19.545879 status=fixed Vminpu=0.8 Vmaxpu=1.2
New Load.B61632-1-B_Cust1 phases=1 bus=X_B61632_Cust1-B.2 kV=0.24 kW=28.177143 kvar=18.752234 status=fixed Vminpu=0.8 Vmaxpu=1.2
New Load.B61632-1-C_Cust1 phases=1 bus=X_B61632_Cust1-C.3 kV=0.24 kW=20.643614 kvar=13.029585 status=fixed Vminpu=0.8 Vmaxpu=1.2
New Load.B18886-1-B_Cust1 phases=1 bus=X_B18886_Cust1-B.2 kV=0.24 kW=4.2265715 kvar=2.812835 status=fixed Vminpu=0.8 Vmaxpu=1.2
New Load.5979429639-1-B_Cust1 phases=1 bus=X_5979429639_Cust1-B.2 kV=0.24 kW=7.0442859 kvar=4.6880584 status=fixed Vminpu=0.8 Vmaxpu=1.2
New Load.B18941-1-A_Cust3 phases=1 bus=X_B18941_Cust3-A.1 kV=0.24 kW=3.362134 kvar=2.44323483333333 status=fixed Vminpu=0.8 Vmaxpu=1.2
New Load.B18941-1-A_Cust2 phases=1 bus=X_B18941_Cust2-A.1 kV=0.24 kW=3.362134 kvar=2.44323483333333 status=fixed Vminpu=0.8 Vmaxpu=1.2
New Load.B18941-1-A_Cust1 phases=1 bus=X_B18941_Cust1-A.1 kV=0.24 kW=3.362134 kvar=2.44323483333333 status=fixed Vminpu=0.8 Vmaxpu=1.2
New Load.G40138-1-C_Cust1 phases=1 bus=X_G40138_Cust1-C.3 kV=0.24 kW=3.0965421 kvar=1.9544377 status=fixed Vminpu=0.8 Vmaxpu=1.2
New Load.B18855-1-B_Cust2 phases=1 bus=X_B18855_Cust2-B.2 kV=0.24 kW=2.11328575 kvar=1.4064175 status=fixed Vminpu=0.8 Vmaxpu=1.2
New Load.B18855-1-B_Cust1 phases=1 bus=X_B18855_Cust1-B.2 kV=0.24 kW=2.11328575 kvar=1.4064175 status=fixed Vminpu=0.8 Vmaxpu=1.2
New Load.B4673-1-A_Cust1 phases=1 bus=X_B4673_Cust1-A.1 kV=0.24 kW=6.724268 kvar=4.8864697 status=fixed Vminpu=0.8 Vmaxpu=1.2
New Load.B19064-1-C_Cust1 phases=1 bus=X_B19064_Cust1-C.3 kV=0.24 kW=3.0965421 kvar=1.9544377 status=fixed Vminpu=0.8 Vmaxpu=1.2
New Load.B45445-1-C_Cust2 phases=1 bus=X_B45445_Cust2-C.3 kV=0.24 kW=1.0321807 kvar=0.65147925 status=fixed Vminpu=0.8 Vmaxpu=1.2
New Load.B45445-1-C_Cust1 phases=1 bus=X_B45445_Cust1-C.3 kV=0.24 kW=1.0321807 kvar=0.65147925 status=fixed Vminpu=0.8 Vmaxpu=1.2
New Load.B57500-1-B_Cust1 phases=1 bus=X_B57500_Cust1-B.2 kV=0.24 kW=4.2265715 kvar=2.812835 status=fixed Vminpu=0.8 Vmaxpu=1.2
New Load.B14324-1-A_Cust1 phases=1 bus=X_B14324_Cust1-A.1 kV=0.24 kW=4.0345608 kvar=2.9318818 status=fixed Vminpu=0.8 Vmaxpu=1.2
New Load.B60757-1-C_Cust1 phases=1 bus=X_B60757_Cust1-C.3 kV=0.24 kW=3.0965421 kvar=1.9544377 status=fixed Vminpu=0.8 Vmaxpu=1.2
New Load.G34723-1-C_Cust1 phases=1 bus=X_G34723_Cust1-C.3 kV=0.24 kW=3.0965421 kvar=1.9544377 status=fixed Vminpu=0.8 Vmaxpu=1.2
New Load.B22571-1-C_Cust3 phases=1 bus=X_B22571_Cust3-C.3 kV=0.24 kW=1.0321807 kvar=0.651479233333333 status=fixed Vminpu=0.8 Vmaxpu=1.2
New Load.B22571-1-C_Cust2 phases=1 bus=X_B22571_Cust2-C.3 kV=0.24 kW=1.0321807 kvar=0.651479233333333 status=fixed Vminpu=0.8 Vmaxpu=1.2
New Load.B22571-1-C_Cust1 phases=1 bus=X_B22571_Cust1-C.3 kV=0.24 kW=1.0321807 kvar=0.651479233333333 status=fixed Vminpu=0.8 Vmaxpu=1.2
New Load.B13555-1-A_Cust2 phases=1 bus=X_B13555_Cust2-A.1 kV=0.24 kW=3.362134 kvar=2.44323485 status=fixed Vminpu=0.8 Vmaxpu=1.2
New Load.B13555-1-A_Cust1 phases=1 bus=X_B13555_Cust1-A.1 kV=0.24 kW=3.362134 kvar=2.44323485 status=fixed Vminpu=0.8 Vmaxpu=1.2
New Load.B23889-1-C_Cust1 phases=1 bus=X_B23889_Cust1-C.3 kV=0.24 kW=3.0965421 kvar=1.9544377 status=fixed Vminpu=0.8 Vmaxpu=1.2
New Load.B43440-1-B_Cust3 phases=1 bus=X_B43440_Cust3-B.2 kV=0.24 kW=3.522143 kvar=2.3440292 status=fixed Vminpu=0.8 Vmaxpu=1.2
New Load.B43440-1-B_Cust2 phases=1 bus=X_B43440_Cust2-B.2 kV=0.24 kW=3.522143 kvar=2.3440292 status=fixed Vminpu=0.8 Vmaxpu=1.2
New Load.B43440-1-B_Cust1 phases=1 bus=X_B43440_Cust1-B.2 kV=0.24 kW=3.522143 kvar=2.3440292 status=fixed Vminpu=0.8 Vmaxpu=1.2
New Load.5904428572-1-B_Cust2 phases=1 bus=X_5904428572_Cust2-B.2 kV=0.24 kW=2.11328575 kvar=1.4064175 status=fixed Vminpu=0.8 Vmaxpu=1.2
New Load.5904428572-1-B_Cust1 phases=1 bus=X_5904428572_Cust1-B.2 kV=0.24 kW=2.11328575 kvar=1.4064175 status=fixed Vminpu=0.8 Vmaxpu=1.2
New Load.B41085-1-B_Cust1 phases=1 bus=X_B41085_Cust1-B.2 kV=0.24 kW=7.0442859 kvar=4.6880584 status=fixed Vminpu=0.8 Vmaxpu=1.2
New Load.B41085-1-C_Cust1 phases=1 bus=X_B41085_Cust1-C.3 kV=0.24 kW=5.1609036 kvar=3.2573962 status=fixed Vminpu=0.8 Vmaxpu=1.2
New Load.B19021-1-A_Cust1 phases=1 bus=X_B19021_Cust1-A.1 kV=0.24 kW=4.0345608 kvar=2.9318818 status=fixed Vminpu=0.8 Vmaxpu=1.2
New Load.6053129341-1-B_Cust1 phases=1 bus=X_6053129341_Cust1-B.2 kV=0.24 kW=7.0442859 kvar=4.6880584 status=fixed Vminpu=0.8 Vmaxpu=1.2
New Load.6059129162-1-C_Cust1 phases=1 bus=X_6059129162_Cust1-C.3 kV=0.24 kW=5.1609036 kvar=3.2573962 status=fixed Vminpu=0.8 Vmaxpu=1.2
New Load.B60934-1-C_Cust2 phases=1 bus=X_B60934_Cust2-C.3 kV=0.24 kW=1.54827105 kvar=0.97721885 status=fixed Vminpu=0.8 Vmaxpu=1.2
New Load.B60934-1-C_Cust1 phases=1 bus=X_B60934_Cust1-C.3 kV=0.24 kW=1.54827105 kvar=0.97721885 status=fixed Vminpu=0.8 Vmaxpu=1.2
New Load.5993629800-1-B_Cust1 phases=1 bus=X_5993629800_Cust1-B.2 kV=0.24 kW=7.0442859 kvar=4.6880584 status=fixed Vminpu=0.8 Vmaxpu=1.2
New Load.B63785-1-C_Cust1 phases=1 bus=X_B63785_Cust1-C.3 kV=0.24 kW=3.0965421 kvar=1.9544377 status=fixed Vminpu=0.8 Vmaxpu=1.2
New Load.B59172-1-B_Cust1 phases=1 bus=X_B59172_Cust1-B.2 kV=0.24 kW=7.0442859 kvar=4.6880584 status=fixed Vminpu=0.8 Vmaxpu=1.2
New Load.5962929303-1-B_Cust1 phases=1 bus=X_5962929303_Cust1-B.2 kV=0.24 kW=7.0442859 kvar=4.6880584 status=fixed Vminpu=0.8 Vmaxpu=1.2
New Load.B4826-1-B_Cust1 phases=1 bus=X_B4826_Cust1-B.2 kV=0.24 kW=4.2265715 kvar=2.812835 status=fixed Vminpu=0.8 Vmaxpu=1.2
New Load.B4826-1-C_Cust1 phases=1 bus=X_B4826_Cust1-C.3 kV=0.24 kW=3.0965421 kvar=1.9544377 status=fixed Vminpu=0.8 Vmaxpu=1.2
New Load.B28551-1-B_Cust1 phases=1 bus=X_B28551_Cust1-B.2 kV=0.24 kW=2.8177143 kvar=1.8752234 status=fixed Vminpu=0.8 Vmaxpu=1.2
New Load.B28551-1-C_Cust1 phases=1 bus=X_B28551_Cust1-C.3 kV=0.24 kW=2.0643614 kvar=1.3029585 status=fixed Vminpu=0.8 Vmaxpu=1.2
New Load.B4795-1-C_Cust4 phases=1 bus=X_B4795_Cust4-C.3 kV=0.24 kW=1.2902259 kvar=0.81434905 status=fixed Vminpu=0.8 Vmaxpu=1.2
New Load.B4795-1-C_Cust3 phases=1 bus=X_B4795_Cust3-C.3 kV=0.24 kW=1.2902259 kvar=0.81434905 status=fixed Vminpu=0.8 Vmaxpu=1.2
New Load.B4795-1-C_Cust2 phases=1 bus=X_B4795_Cust2-C.3 kV=0.24 kW=1.2902259 kvar=0.81434905 status=fixed Vminpu=0.8 Vmaxpu=1.2
New Load.B4795-1-C_Cust1 phases=1 bus=X_B4795_Cust1-C.3 kV=0.24 kW=1.2902259 kvar=0.81434905 status=fixed Vminpu=0.8 Vmaxpu=1.2
New Load.B5186-1-B_Cust1 phases=1 bus=X_B5186_Cust1-B.2 kV=0.24 kW=4.2265715 kvar=2.812835 status=fixed Vminpu=0.8 Vmaxpu=1.2
New Load.B5193-1-B_Cust2 phases=1 bus=X_B5193_Cust2-B.2 kV=0.24 kW=2.11328575 kvar=1.4064175 status=fixed Vminpu=0.8 Vmaxpu=1.2
New Load.B5193-1-B_Cust1 phases=1 bus=X_B5193_Cust1-B.2 kV=0.24 kW=2.11328575 kvar=1.4064175 status=fixed Vminpu=0.8 Vmaxpu=1.2
New Load.B41861-1-B_Cust2 phases=1 bus=X_B41861_Cust2-B.2 kV=0.24 kW=3.52214295 kvar=2.3440292 status=fixed Vminpu=0.8 Vmaxpu=1.2
New Load.B41861-1-B_Cust1 phases=1 bus=X_B41861_Cust1-B.2 kV=0.24 kW=3.52214295 kvar=2.3440292 status=fixed Vminpu=0.8 Vmaxpu=1.2
New Load.B56325-1-A_Cust1 phases=1 bus=X_B56325_Cust1-A.1 kV=0.24 kW=24.91811 kvar=12.641617 status=fixed Vminpu=0.8 Vmaxpu=1.2
New Load.B56325-1-B_Cust1 phases=1 bus=X_B56325_Cust1-B.2 kV=0.24 kW=27.05583 kvar=11.31623 status=fixed Vminpu=0.8 Vmaxpu=1.2
...